@<TRIPOS>MOLECULE
5HF_raw.mol2
28 30 1 0 0
SMALL
AMBER ff14SB


@<TRIPOS>ATOM
      1 C          -4.0302   -0.4234    0.1368 C.ar      1 UNL1   -0.0622
      2 C          -3.5002    0.8665    0.1311 C.ar      1 UNL1   -0.0616
      3 C          -2.1213    1.0623    0.0027 C.ar      1 UNL1   -0.0523
      4 C          -1.2453   -0.0402   -0.1229 C.ar      1 UNL1    0.0054
      5 C          -1.8034   -1.3364   -0.1147 C.ar      1 UNL1   -0.0523
      6 C          -3.1826   -1.5235    0.0140 C.ar      1 UNL1   -0.0616
      7 C           0.2361    0.1102   -0.2630 C.ar      1 UNL1    0.0931
      8 C           0.8833    1.3568   -0.2816 C.ar      1 UNL1    0.0178
      9 C           2.2723    1.4175   -0.4158 C.ar      1 UNL1    0.1933
     10 O           2.7972    2.5151   -0.4277 O.2       1 UNL1   -0.2890
     11 C           3.0257    0.2235   -0.5330 C.ar      1 UNL1    0.0828
     12 C           4.4490    0.1558   -0.6752 C.ar      1 UNL1    0.0851
     13 C           5.0713   -1.0951   -0.7816 C.ar      1 UNL1   -0.0311
     14 C           4.3297   -2.2729   -0.7513 C.ar      1 UNL1   -0.0570
     15 C           2.9471   -2.2221   -0.6136 C.ar      1 UNL1   -0.0303
     16 C           2.2926   -0.9931   -0.5049 C.ar      1 UNL1    0.0958
     17 O           0.9709   -0.9921   -0.3750 O.2       1 UNL1   -0.3088
     18 O           5.2655    1.2340   -0.7165 O.3       1 UNL1   -0.3601
     19 H          -5.0980   -0.5703    0.2364 H         1 UNL1    0.0623
     20 H          -4.1600    1.7194    0.2265 H         1 UNL1    0.0623
     21 H          -1.7681    2.0807    0.0046 H         1 UNL1    0.0630
     22 H          -1.1756   -2.2136   -0.2079 H         1 UNL1    0.0630
     23 H          -3.5940   -2.5247    0.0185 H         1 UNL1    0.0623
     24 H           0.3398    2.2852   -0.1946 H         1 UNL1    0.0693
     25 H           6.1476   -1.1540   -0.8895 H         1 UNL1    0.0651
     26 H           4.8298   -3.2293   -0.8350 H         1 UNL1    0.0625
     27 H           2.3787   -3.1437   -0.5911 H         1 UNL1    0.0651
     28 H           5.0065    2.1584   -0.6576 H         1 UNL1    0.2183
@<TRIPOS>BOND
     1    1    2 ar
     2    2    3 ar
     3    3    4 ar
     4    4    5 ar
     5    5    6 ar
     6    1    6 ar
     7    4    7 1
     8    7    8 ar
     9    8    9 ar
    10    9   10 2
    11    9   11 ar
    12   11   12 ar
    13   12   13 ar
    14   13   14 ar
    15   14   15 ar
    16   15   16 ar
    17   11   16 ar
    18   16   17 ar
    19    7   17 ar
    20   12   18 1
    21    1   19 1
    22    2   20 1
    23    3   21 1
    24    5   22 1
    25    6   23 1
    26    8   24 1
    27   13   25 1
    28   14   26 1
    29   15   27 1
    30   18   28 1
@<TRIPOS>SUBSTRUCTURE
     1 UNL1     1 RESIDUE           4 A     UNL1     0 ROOT
